** Lab 02 membrane input file test
**
** NODES
**
*Node, nset = nglobal
   1,     0.0,     0.0,     0.0
   2,    25.0,     0.0,     0.0
   3,    50.0,     0.0,     0.0
   4,    75.0,     0.0,     0.0
   5,   100.0,     0.0,     0.0
   6,   125.0,     0.0,     0.0
   7,   150.0,     0.0,     0.0
   8,   175.0,     0.0,     0.0
   9,   200.0,     0.0,     0.0
  10,   225.0,     0.0,     0.0
  11,   250.0,     0.0,     0.0
  12,   275.0,     0.0,     0.0
  13,   300.0,     0.0,     0.0
  14,   325.0,     0.0,     0.0
  15,   350.0,     0.0,     0.0
  16,   375.0,     0.0,     0.0
  17,   400.0,     0.0,     0.0
  18,   425.0,     0.0,     0.0
  19,   450.0,     0.0,     0.0
  20,   475.0,     0.0,     0.0
** ... 349 like lines cut
**
** ELEMENTS
**
*Element, type = M4R
   1,   1,   2,  43,  42
   2,   2,   3,  44,  43
   3,   3,   4,  45,  44
   4,   4,   5,  46,  45
   5,   5,   6,  47,  46
   6,   6,   7,  48,  47
   7,   7,   8,  49,  48
   8,   8,   9,  50,  49
   9,   9,  10,  51,  50
  10,  10,  11,  52,  51
  11,  11,  12,  53,  52
  12,  12,  13,  54,  53
  13,  13,  14,  55,  54
  14,  14,  15,  56,  55
  15,  15,  16,  57,  56
  16,  16,  17,  58,  57
  17,  17,  18,  59,  58
  18,  18,  19,  60,  59
  19,  19,  20,  61,  60
  20,  20,  21,  62,  61
** ... 300 like lines cut
**
** MATERIALS
**
*Material, name = material_1
*Elastic
72000.0,  0.33
**
** SETS
**
*Nset, nset = fixed_nodes
   1,  42,  83, 124, 165, 206, 247, 288, 329
*Nset, nset = loaded_nodes_internal
  82, 123, 164, 205, 246, 287, 328
*Nset, nset = loaded_nodes_external
  41, 369
*Elset, elset = plate_1, generate
   1, 320,   1
**
** LOCAL ORIENTATION
**
*orientation, name = local_orientation
1.0, 0.0, 0.0, 0.0, 1.0, 0.0
3, 0.0
**
** MEMBRANE PROPERTIES
**
*Membrane Section, elset = plate_1, material = material_1, orientation = local_orientation
**
** STEP
**
*Step, name = step_1
*Static
**
** BOUNDARY CONDITIONS
**
*Boundary
fixed_nodes, ENCASTRE
**
** LOADS
**
*Cload
loaded_nodes_external,  2, 0.25
loaded_nodes_internal,  2, 0.5
**
** FIELD OUTPUT
**
*Output, field, variable=PRESELECT
**
** HISTORY OUTPUT
**
*Output, history, variable=PRESELECT
**
** PRINT RESULTS TO FILE
**
*NODE FILE
U,
RF,
*EL FILE
S,
*End Step

