** Lab 02 input file test
**
** NODES
**
*Node, nset = nglobal
   1,     0.0,     0.0,     0.0
   2,   100.0,     0.0,     0.0
   3,   200.0,     0.0,     0.0
   4,   300.0,     0.0,     0.0
   5,   400.0,     0.0,     0.0
   6,   500.0,     0.0,     0.0
   7,   600.0,     0.0,     0.0
   8,   700.0,     0.0,     0.0
   9,   800.0,     0.0,     0.0
  10,   900.0,     0.0,     0.0
  11,  1000.0,     0.0,     0.0
  12,     0.0,   100.0,     0.0
  13,   100.0,   100.0,     0.0
  14,   200.0,   100.0,     0.0
  15,   300.0,   100.0,     0.0
  16,   400.0,   100.0,     0.0
  17,   500.0,   100.0,     0.0
  18,   600.0,   100.0,     0.0
  19,   700.0,   100.0,     0.0
  20,   800.0,   100.0,     0.0
** ... 13 like lines cut
**
** ELEMENTS
**
*Element, type = S4R
   1,   1,   2,  13,  12
   2,   2,   3,  14,  13
   3,   3,   4,  15,  14
   4,   4,   5,  16,  15
   5,   5,   6,  17,  16
   6,   6,   7,  18,  17
   7,   7,   8,  19,  18
   8,   8,   9,  20,  19
   9,   9,  10,  21,  20
  10,  10,  11,  22,  21
  11,  12,  13,  24,  23
  12,  13,  14,  25,  24
  13,  14,  15,  26,  25
  14,  15,  16,  27,  26
  15,  16,  17,  28,  27
  16,  17,  18,  29,  28
  17,  18,  19,  30,  29
  18,  19,  20,  31,  30
  19,  20,  21,  32,  31
  20,  21,  22,  33,  32
**
** MATERIALS
**
*Material, name = material_1
*Elastic
72000.0,  0.33
**
** SETS
**
*Nset, nset = fixed_nodes
   1,  12,  23
*Nset, nset = loaded_nodes_internal
  22
*Nset, nset = loaded_nodes_external
  11,  33
*Elset, elset = plate_1, generate
   1,  20,   1
**
** LOCAL ORIENTATION
**
*orientation, name = local_orientation
1.0, 0.0, 0.0, 0.0, 1.0, 0.0
3, 0.0
**
** SHELL PROPERTIES
**
*Shell Section, elset = plate_1, material = material_1, orientation = local_orientation
 1.5,   5
**
** STEP
**
*Step, name = step_1
*Static
**
** BOUNDARY CONDITIONS
**
*Boundary
fixed_nodes, ENCASTRE
**
** LOADS
**
*Cload
loaded_nodes_external,  3, 1.0
loaded_nodes_internal,  3, 2.0
**
** FIELD OUTPUT
**
*Output, field, variable=PRESELECT
**
** HISTORY OUTPUT
**
*Output, history, variable=PRESELECT
**
** PRINT RESULTS TO FILE
**
*NODE FILE
U,
RF,
*EL FILE
S,
*End Step

