** Lab 02 input file test
**
** NODES
**
*Node, nset = nglobal
   1,     0.0,     0.0,     0.0
   2,    20.0,     0.0,     0.0
   3,    40.0,     0.0,     0.0
   4,    60.0,     0.0,     0.0
   5,    80.0,     0.0,     0.0
   6,   100.0,     0.0,     0.0
   7,   120.0,     0.0,     0.0
   8,   140.0,     0.0,     0.0
   9,   160.0,     0.0,     0.0
  10,   180.0,     0.0,     0.0
  11,   200.0,     0.0,     0.0
  12,   220.0,     0.0,     0.0
  13,   240.0,     0.0,     0.0
  14,   260.0,     0.0,     0.0
  15,   280.0,     0.0,     0.0
  16,   300.0,     0.0,     0.0
  17,   320.0,     0.0,     0.0
  18,   340.0,     0.0,     0.0
  19,   360.0,     0.0,     0.0
  20,   380.0,     0.0,     0.0
** ... 541 like lines cut
**
** ELEMENTS
**
*Element, type = S4R
   1,   1,   2,  53,  52
   2,   2,   3,  54,  53
   3,   3,   4,  55,  54
   4,   4,   5,  56,  55
   5,   5,   6,  57,  56
   6,   6,   7,  58,  57
   7,   7,   8,  59,  58
   8,   8,   9,  60,  59
   9,   9,  10,  61,  60
  10,  10,  11,  62,  61
  11,  11,  12,  63,  62
  12,  12,  13,  64,  63
  13,  13,  14,  65,  64
  14,  14,  15,  66,  65
  15,  15,  16,  67,  66
  16,  16,  17,  68,  67
  17,  17,  18,  69,  68
  18,  18,  19,  70,  69
  19,  19,  20,  71,  70
  20,  20,  21,  72,  71
** ... 480 like lines cut
**
** MATERIALS
**
*Material, name = material_1
*Elastic
72000.0,  0.33
**
** SETS
**
*Nset, nset = fixed_nodes
   1,  52, 103, 154, 205, 256, 307, 358, 409, 460, 511
*Nset, nset = loaded_nodes_internal
 102, 153, 204, 255, 306, 357, 408, 459, 510
*Nset, nset = loaded_nodes_external
  51, 561
*Elset, elset = plate_1, generate
   1, 500,   1
**
** LOCAL ORIENTATION
**
*orientation, name = local_orientation
1.0, 0.0, 0.0, 0.0, 1.0, 0.0
3, 0.0
**
** SHELL PROPERTIES
**
*Shell Section, elset = plate_1, material = material_1, orientation = local_orientation
 1.5,   5
**
** STEP
**
*Step, name = step_1
*Static
**
** BOUNDARY CONDITIONS
**
*Boundary
fixed_nodes, ENCASTRE
**
** LOADS
**
*Cload
loaded_nodes_external,  3, 0.2
loaded_nodes_internal,  3, 0.4
**
** FIELD OUTPUT
**
*Output, field, variable=PRESELECT
**
** HISTORY OUTPUT
**
*Output, history, variable=PRESELECT
**
** PRINT RESULTS TO FILE
**
*NODE FILE
U,
RF,
*EL FILE
S,
*End Step

