** Lab 02 input file test
**
** NODES
**
*Node, nset = nglobal
   1,     0.0,     0.0,     0.0
   2,    50.0,     0.0,     0.0
   3,   100.0,     0.0,     0.0
   4,   150.0,     0.0,     0.0
   5,   200.0,     0.0,     0.0
   6,   250.0,     0.0,     0.0
   7,   300.0,     0.0,     0.0
   8,   350.0,     0.0,     0.0
   9,   400.0,     0.0,     0.0
  10,   450.0,     0.0,     0.0
  11,   500.0,     0.0,     0.0
  12,   550.0,     0.0,     0.0
  13,   600.0,     0.0,     0.0
  14,   650.0,     0.0,     0.0
  15,   700.0,     0.0,     0.0
  16,   750.0,     0.0,     0.0
  17,   800.0,     0.0,     0.0
  18,   850.0,     0.0,     0.0
  19,   900.0,     0.0,     0.0
  20,   950.0,     0.0,     0.0
** ... 106 like lines cut
**
** ELEMENTS
**
*Element, type = S4R
   1,   1,   2,  23,  22
   2,   2,   3,  24,  23
   3,   3,   4,  25,  24
   4,   4,   5,  26,  25
   5,   5,   6,  27,  26
   6,   6,   7,  28,  27
   7,   7,   8,  29,  28
   8,   8,   9,  30,  29
   9,   9,  10,  31,  30
  10,  10,  11,  32,  31
  11,  11,  12,  33,  32
  12,  12,  13,  34,  33
  13,  13,  14,  35,  34
  14,  14,  15,  36,  35
  15,  15,  16,  37,  36
  16,  16,  17,  38,  37
  17,  17,  18,  39,  38
  18,  18,  19,  40,  39
  19,  19,  20,  41,  40
  20,  20,  21,  42,  41
** ... 80 like lines cut
**
** MATERIALS
**
*Material, name = material_1
*Elastic
72000.0,  0.33
**
** SETS
**
*Nset, nset = fixed_nodes
   1,  22,  43,  64,  85, 106
*Nset, nset = loaded_nodes_internal
  42,  63,  84, 105
*Nset, nset = loaded_nodes_external
  21, 126
*Elset, elset = plate_1, generate
   1, 100,   1
**
** LOCAL ORIENTATION
**
*orientation, name = local_orientation
1.0, 0.0, 0.0, 0.0, 1.0, 0.0
3, 0.0
**
** SHELL PROPERTIES
**
*Shell Section, elset = plate_1, material = material_1, orientation = local_orientation
 1.5,   5
**
** STEP
**
*Step, name = step_1
*Static
**
** BOUNDARY CONDITIONS
**
*Boundary
fixed_nodes, ENCASTRE
**
** LOADS
**
*Cload
loaded_nodes_external,  3, 0.4
loaded_nodes_internal,  3, 0.8
**
** FIELD OUTPUT
**
*Output, field, variable=PRESELECT
**
** HISTORY OUTPUT
**
*Output, history, variable=PRESELECT
**
** PRINT RESULTS TO FILE
**
*NODE FILE
U,
RF,
*EL FILE
S,
*End Step

