1

   Abaqus 6.14-1                                  Date 08-mag-2015   Time 14:14:13
   For use by Supplied By SSQ under license from Dassault Systemes or its subsidiary.



                         The Abaqus Software is a product of:

                           Dassault Systemes Simulia Corp.
                                 Rising Sun Mills
                                 166 Valley Street
                           Providence, RI 02909-2499, USA
 


                   The Abaqus Software is available only under license
                   from Dassault Systemes or its subsidiary and may be
                   used or reproduced only in accordance with the terms
                   of such license.
 
                          On machine celsius 
                          you are authorized to run
                          Abaqus/Standard until 31-Dec-2055

                          Your site id is:  


 
                    For assistance or any other information you may
                    obtain contact information for your local office
                    from the world wide web at:

                      http://www.3ds.com/products/simulia/locations/

 
                * * * * * * * * * * * * * * * * * * * * * * * * * * * * * * 
                *                                                         * 
                *                   *****************                     * 
                *                   *  N O T I C E  *                     * 
                *                   *****************                     * 
                *                                                         * 
                *                                                         * 
                *                    Abaqus 6.14-1                        * 
                *                                                         * 
                *          BUILD ID: 2014_06_04-21.37.49 134264           * 
                *                                                         * 
                *                                                         * 
                *  Please make sure you are using release 6.14 manuals    * 
                *  plus the notes accompanying this release.              * 
                *                                                         * 
                *                                                         * 
                *                                                         * 
                *                                                         * 
                * * * * * * * * * * * * * * * * * * * * * * * * * * * * * * 


 



     PROCESSING PART, INSTANCE, AND ASSEMBLY INFORMATION
   *******************************************************


     END PROCESSING PART, INSTANCE, AND ASSEMBLY INFORMATION
   ***********************************************************




     OPTIONS BEING PROCESSED
   ***************************


  *Node
  *Element, type=S4R
  *Nset, nset=ASSEMBLY_HR_NGLOBAL
  *Nset, nset=ASSEMBLY_HR__PICKEDSET2
  *Elset, elset=ASSEMBLY_HR_EGLOBAL
  *Elset, elset=ASSEMBLY_HR__PICKEDSET2
  *Nset, nset=ASSEMBLY__PICKEDSET3
  *Nset, nset=ASSEMBLY__PICKEDSET4
  *Nset, nset=ASSEMBLY__PICKEDSET5
  *Nset, nset=ASSEMBLY__PICKEDSET6
  *Elset, elset=ASSEMBLY__PICKEDSET3
  *Elset, elset=ASSEMBLY__PICKEDSET4
  *Elset, elset=ASSEMBLY__PICKEDSET5
  *material, name=MATERIAL-1
  *elastic
  *shellsection, elset=ASSEMBLY_HR__PICKEDSET2, material=MATERIAL-1
  *boundary
  *boundary, type=DISPLACEMENT
  *shellsection, elset=ASSEMBLY_HR__PICKEDSET2, material=MATERIAL-1
  *output, field, frequency=1
  *output, field, variable=PRESELECT
  *output, history, frequency=1
  *output, history, variable=PRESELECT
  *output, field, frequency=1
  *output, field, variable=PRESELECT
  *output, history, frequency=1
  *output, history, variable=PRESELECT
  *output, field, frequency=1
  *output, field, variable=PRESELECT
  *output, history, frequency=1
  *output, history, variable=PRESELECT
  *Step, nlgeom=YES, name=Step-1, inc=100000
  *Step, nlgeom=YES, name=Step-1, inc=100000
  *Step, nlgeom=YES, name=Step-1, inc=100000
  *static
  *boundary
  *boundary, type=DISPLACEMENT
  *nodeprint, nset=ASSEMBLY__PICKEDSET6
  *nodefile, nset=ASSEMBLY__PICKEDSET6, frequency=100
  *output, field, frequency=1
  *output, field, variable=PRESELECT
  *output, history, frequency=1
  *output, history, variable=PRESELECT
  *endstep
  *Step, nlgeom=YES, name=Step-1, inc=100000
  *static
  *boundary
  *boundary, type=DISPLACEMENT
  *endstep


                              E L E M E N T,   N O D E,   A N D   S U R F A C E   M A P S


**NOTE: This section may not include complete information about
        members of sets and surfaces. Use *PREPRINT, MODEL=YES 
        in order to get the set and surface members printed    
        under the following sections:                          
            - E L E M E N T   S E T S                          
            - N O D E   S E T S                                
            - S U R F A C E   D E F I N I T I O N S .          


Assembly name: ASSEMBLY
Number of instances: 1

ASSEMBLY LEVEL
  node sets:
    _PICKEDSET3:
      instance name: HR
      number of nodes: 17
      nodes: 
        1 18 35 52 69 86 103 120 137 154 171 188 205 222 239 256 273

    _PICKEDSET4:
      instance name: HR
      number of nodes: 17
      nodes: 
        273 274 275 276 277 278 279 280 281 282 283 284 285 286 287 288
        289

    _PICKEDSET5:
      instance name: HR
      number of nodes: 17
      nodes: 
        17 34 51 68 85 102 119 136 153 170 187 204 221 238 255 272 289

    _PICKEDSET6:
      instance name: HR
      number of nodes: 1
      nodes: 
        289

  element sets:
    _PICKEDSET3:
      instance name: HR
      number of elements: 16
      elements: 
        1 17 33 49 65 81 97 113 129 145 161 177 193 209 225 241

    _PICKEDSET4:
      instance name: HR
      number of elements: 16
      elements: 
        241 242 243 244 245 246 247 248 249 250 251 252 253 254 255 256

    _PICKEDSET5:
      instance name: HR
      number of elements: 16
      elements: 
        16 32 48 64 80 96 112 128 144 160 176 192 208 224 240 256

  Surfaces:

INSTANCE LEVEL
  node sets:
    Instance name: HR
      node set name: NGLOBAL
        number of nodes: 289
        nodes: 
          1 2 3 4 5 6 7 8 9 10 11 12 13 14 15 16 17 18 19 20 21 22 23 24
          25 26 27 28 29 30 31 32 33 34 35 36 37 38 39 40 41 42 43 44 45
          46 47 48 49 50 51 52 53 54 55 56 57 58 59 60 61 62 63 64 65 66
          67 68 69 70 71 72 73 74 75 76 77 78 79 80 81 82 83 84 85 86 87
          88 89 90 91 92 93 94 95 96 97 98 99 100 101 102 103 104 105
          106 107 108 109 110 111 112 113 114 115 116 117 118 119 120
          121 122 123 124 125 126 127 128 129 130 131 132 133 134 135
          136 137 138 139 140 141 142 143 144 145 146 147 148 149 150
          151 152 153 154 155 156 157 158 159 160 161 162 163 164 165
          166 167 168 169 170 171 172 173 174 175 176 177 178 179 180
          181 182 183 184 185 186 187 188 189 190 191 192 193 194 195
          196 197 198 199 200 201 202 203 204 205 206 207 208 209 210
          211 212 213 214 215 216 217 218 219 220 221 222 223 224 225
          226 227 228 229 230 231 232 233 234 235 236 237 238 239 240
          241 242 243 244 245 246 247 248 249 250 251 252 253 254 255
          256 257 258 259 260 261 262 263 264 265 266 267 268 269 270
          271 272 273 274 275 276 277 278 279 280 281 282 283 284 285
          286 287 288 289
      node set name: _PICKEDSET2
        number of nodes: 289
        nodes: 
          1 2 3 4 5 6 7 8 9 10 11 12 13 14 15 16 17 18 19 20 21 22 23 24
          25 26 27 28 29 30 31 32 33 34 35 36 37 38 39 40 41 42 43 44 45
          46 47 48 49 50 51 52 53 54 55 56 57 58 59 60 61 62 63 64 65 66
          67 68 69 70 71 72 73 74 75 76 77 78 79 80 81 82 83 84 85 86 87
          88 89 90 91 92 93 94 95 96 97 98 99 100 101 102 103 104 105
          106 107 108 109 110 111 112 113 114 115 116 117 118 119 120
          121 122 123 124 125 126 127 128 129 130 131 132 133 134 135
          136 137 138 139 140 141 142 143 144 145 146 147 148 149 150
          151 152 153 154 155 156 157 158 159 160 161 162 163 164 165
          166 167 168 169 170 171 172 173 174 175 176 177 178 179 180
          181 182 183 184 185 186 187 188 189 190 191 192 193 194 195
          196 197 198 199 200 201 202 203 204 205 206 207 208 209 210
          211 212 213 214 215 216 217 218 219 220 221 222 223 224 225
          226 227 228 229 230 231 232 233 234 235 236 237 238 239 240
          241 242 243 244 245 246 247 248 249 250 251 252 253 254 255
          256 257 258 259 260 261 262 263 264 265 266 267 268 269 270
          271 272 273 274 275 276 277 278 279 280 281 282 283 284 285
          286 287 288 289

  element sets:
    Instance name: HR
      element set name: EGLOBAL
        number of elements: 256
        elements: 
          1 2 3 4 5 6 7 8 9 10 11 12 13 14 15 16 17 18 19 20 21 22 23 24
          25 26 27 28 29 30 31 32 33 34 35 36 37 38 39 40 41 42 43 44 45
          46 47 48 49 50 51 52 53 54 55 56 57 58 59 60 61 62 63 64 65 66
          67 68 69 70 71 72 73 74 75 76 77 78 79 80 81 82 83 84 85 86 87
          88 89 90 91 92 93 94 95 96 97 98 99 100 101 102 103 104 105
          106 107 108 109 110 111 112 113 114 115 116 117 118 119 120
          121 122 123 124 125 126 127 128 129 130 131 132 133 134 135
          136 137 138 139 140 141 142 143 144 145 146 147 148 149 150
          151 152 153 154 155 156 157 158 159 160 161 162 163 164 165
          166 167 168 169 170 171 172 173 174 175 176 177 178 179 180
          181 182 183 184 185 186 187 188 189 190 191 192 193 194 195
          196 197 198 199 200 201 202 203 204 205 206 207 208 209 210
          211 212 213 214 215 216 217 218 219 220 221 222 223 224 225
          226 227 228 229 230 231 232 233 234 235 236 237 238 239 240
          241 242 243 244 245 246 247 248 249 250 251 252 253 254 255
          256
      element set name: _PICKEDSET2
        number of elements: 256
        elements: 
          1 2 3 4 5 6 7 8 9 10 11 12 13 14 15 16 17 18 19 20 21 22 23 24
          25 26 27 28 29 30 31 32 33 34 35 36 37 38 39 40 41 42 43 44 45
          46 47 48 49 50 51 52 53 54 55 56 57 58 59 60 61 62 63 64 65 66
          67 68 69 70 71 72 73 74 75 76 77 78 79 80 81 82 83 84 85 86 87
          88 89 90 91 92 93 94 95 96 97 98 99 100 101 102 103 104 105
          106 107 108 109 110 111 112 113 114 115 116 117 118 119 120
          121 122 123 124 125 126 127 128 129 130 131 132 133 134 135
          136 137 138 139 140 141 142 143 144 145 146 147 148 149 150
          151 152 153 154 155 156 157 158 159 160 161 162 163 164 165
          166 167 168 169 170 171 172 173 174 175 176 177 178 179 180
          181 182 183 184 185 186 187 188 189 190 191 192 193 194 195
          196 197 198 199 200 201 202 203 204 205 206 207 208 209 210
          211 212 213 214 215 216 217 218 219 220 221 222 223 224 225
          226 227 228 229 230 231 232 233 234 235 236 237 238 239 240
          241 242 243 244 245 246 247 248 249 250 251 252 253 254 255
          256

  Surfaces:

GLOBAL TO LOCAL NODE AND ELEMENT MAPS
  Global     Local      
  node       node       
  number     number     
                        Instance name                                   
   1          1         HR                                              
   2          2         HR                                              
   3          3         HR                                              
   4          4         HR                                              
   5          5         HR                                              
   6          6         HR                                              
   7          7         HR                                              
   8          8         HR                                              
   9          9         HR                                              
   10         10        HR                                              
   11         11        HR                                              
   12         12        HR                                              
   13         13        HR                                              
   14         14        HR                                              
   15         15        HR                                              
   16         16        HR                                              
   17         17        HR                                              
   18         18        HR                                              
   19         19        HR                                              
   20         20        HR                                              
   21         21        HR                                              
   22         22        HR                                              
   23         23        HR                                              
   24         24        HR                                              
   25         25        HR                                              
   26         26        HR                                              
   27         27        HR                                              
   28         28        HR                                              
   29         29        HR                                              
   30         30        HR                                              
   31         31        HR                                              
   32         32        HR                                              
   33         33        HR                                              
   34         34        HR                                              
   35         35        HR                                              
   36         36        HR                                              
   37         37        HR                                              
   38         38        HR                                              
   39         39        HR                                              
   40         40        HR                                              
   41         41        HR                                              
   42         42        HR                                              
   43         43        HR                                              
   44         44        HR                                              
   45         45        HR                                              
   46         46        HR                                              
   47         47        HR                                              
   48         48        HR                                              
   49         49        HR                                              
   50         50        HR                                              
   51         51        HR                                              
   52         52        HR                                              
   53         53        HR                                              
   54         54        HR                                              
   55         55        HR                                              
   56         56        HR                                              
   57         57        HR                                              
   58         58        HR                                              
   59         59        HR                                              
   60         60        HR                                              
   61         61        HR                                              
   62         62        HR                                              
   63         63        HR                                              
   64         64        HR                                              
   65         65        HR                                              
   66         66        HR                                              
   67         67        HR                                              
   68         68        HR                                              
   69         69        HR                                              
   70         70        HR                                              
   71         71        HR                                              
   72         72        HR                                              
   73         73        HR                                              
   74         74        HR                                              
   75         75        HR                                              
   76         76        HR                                              
   77         77        HR                                              
   78         78        HR                                              
   79         79        HR                                              
   80         80        HR                                              
   81         81        HR                                              
   82         82        HR                                              
   83         83        HR                                              
   84         84        HR                                              
   85         85        HR                                              
   86         86        HR                                              
   87         87        HR                                              
   88         88        HR                                              
   89         89        HR                                              
   90         90        HR                                              
   91         91        HR                                              
   92         92        HR                                              
   93         93        HR                                              
   94         94        HR                                              
   95         95        HR                                              
   96         96        HR                                              
   97         97        HR                                              
   98         98        HR                                              
   99         99        HR                                              
   100        100       HR                                              
   101        101       HR                                              
   102        102       HR                                              
   103        103       HR                                              
   104        104       HR                                              
   105        105       HR                                              
   106        106       HR                                              
   107        107       HR                                              
   108        108       HR                                              
   109        109       HR                                              
   110        110       HR                                              
   111        111       HR                                              
   112        112       HR                                              
   113        113       HR                                              
   114        114       HR                                              
   115        115       HR                                              
   116        116       HR                                              
   117        117       HR                                              
   118        118       HR                                              
   119        119       HR                                              
   120        120       HR                                              
   121        121       HR                                              
   122        122       HR                                              
   123        123       HR                                              
   124        124       HR                                              
   125        125       HR                                              
   126        126       HR                                              
   127        127       HR                                              
   128        128       HR                                              
   129        129       HR                                              
   130        130       HR                                              
   131        131       HR                                              
   132        132       HR                                              
   133        133       HR                                              
   134        134       HR                                              
   135        135       HR                                              
   136        136       HR                                              
   137        137       HR                                              
   138        138       HR                                              
   139        139       HR                                              
   140        140       HR                                              
   141        141       HR                                              
   142        142       HR                                              
   143        143       HR                                              
   144        144       HR                                              
   145        145       HR                                              
   146        146       HR                                              
   147        147       HR                                              
   148        148       HR                                              
   149        149       HR                                              
   150        150       HR                                              
   151        151       HR                                              
   152        152       HR                                              
   153        153       HR                                              
   154        154       HR                                              
   155        155       HR                                              
   156        156       HR                                              
   157        157       HR                                              
   158        158       HR                                              
   159        159       HR                                              
   160        160       HR                                              
   161        161       HR                                              
   162        162       HR                                              
   163        163       HR                                              
   164        164       HR                                              
   165        165       HR                                              
   166        166       HR                                              
   167        167       HR                                              
   168        168       HR                                              
   169        169       HR                                              
   170        170       HR                                              
   171        171       HR                                              
   172        172       HR                                              
   173        173       HR                                              
   174        174       HR                                              
   175        175       HR                                              
   176        176       HR                                              
   177        177       HR                                              
   178        178       HR                                              
   179        179       HR                                              
   180        180       HR                                              
   181        181       HR                                              
   182        182       HR                                              
   183        183       HR                                              
   184        184       HR                                              
   185        185       HR                                              
   186        186       HR                                              
   187        187       HR                                              
   188        188       HR                                              
   189        189       HR                                              
   190        190       HR                                              
   191        191       HR                                              
   192        192       HR                                              
   193        193       HR                                              
   194        194       HR                                              
   195        195       HR                                              
   196        196       HR                                              
   197        197       HR                                              
   198        198       HR                                              
   199        199       HR                                              
   200        200       HR                                              
   201        201       HR                                              
   202        202       HR                                              
   203        203       HR                                              
   204        204       HR                                              
   205        205       HR                                              
   206        206       HR                                              
   207        207       HR                                              
   208        208       HR                                              
   209        209       HR                                              
   210        210       HR                                              
   211        211       HR                                              
   212        212       HR                                              
   213        213       HR                                              
   214        214       HR                                              
   215        215       HR                                              
   216        216       HR                                              
   217        217       HR                                              
   218        218       HR                                              
   219        219       HR                                              
   220        220       HR                                              
   221        221       HR                                              
   222        222       HR                                              
   223        223       HR                                              
   224        224       HR                                              
   225        225       HR                                              
   226        226       HR                                              
   227        227       HR                                              
   228        228       HR                                              
   229        229       HR                                              
   230        230       HR                                              
   231        231       HR                                              
   232        232       HR                                              
   233        233       HR                                              
   234        234       HR                                              
   235        235       HR                                              
   236        236       HR                                              
   237        237       HR                                              
   238        238       HR                                              
   239        239       HR                                              
   240        240       HR                                              
   241        241       HR                                              
   242        242       HR                                              
   243        243       HR                                              
   244        244       HR                                              
   245        245       HR                                              
   246        246       HR                                              
   247        247       HR                                              
   248        248       HR                                              
   249        249       HR                                              
   250        250       HR                                              
   251        251       HR                                              
   252        252       HR                                              
   253        253       HR                                              
   254        254       HR                                              
   255        255       HR                                              
   256        256       HR                                              
   257        257       HR                                              
   258        258       HR                                              
   259        259       HR                                              
   260        260       HR                                              
   261        261       HR                                              
   262        262       HR                                              
   263        263       HR                                              
   264        264       HR                                              
   265        265       HR                                              
   266        266       HR                                              
   267        267       HR                                              
   268        268       HR                                              
   269        269       HR                                              
   270        270       HR                                              
   271        271       HR                                              
   272        272       HR                                              
   273        273       HR                                              
   274        274       HR                                              
   275        275       HR                                              
   276        276       HR                                              
   277        277       HR                                              
   278        278       HR                                              
   279        279       HR                                              
   280        280       HR                                              
   281        281       HR                                              
   282        282       HR                                              
   283        283       HR                                              
   284        284       HR                                              
   285        285       HR                                              
   286        286       HR                                              
   287        287       HR                                              
   288        288       HR                                              
   289        289       HR                                              

  Global     Local      
  element    element    
  number     number     
                        Instance name                                   
   1          1         HR                                              
   2          2         HR                                              
   3          3         HR                                              
   4          4         HR                                              
   5          5         HR                                              
   6          6         HR                                              
   7          7         HR                                              
   8          8         HR                                              
   9          9         HR                                              
   10         10        HR                                              
   11         11        HR                                              
   12         12        HR                                              
   13         13        HR                                              
   14         14        HR                                              
   15         15        HR                                              
   16         16        HR                                              
   17         17        HR                                              
   18         18        HR                                              
   19         19        HR                                              
   20         20        HR                                              
   21         21        HR                                              
   22         22        HR                                              
   23         23        HR                                              
   24         24        HR                                              
   25         25        HR                                              
   26         26        HR                                              
   27         27        HR                                              
   28         28        HR                                              
   29         29        HR                                              
   30         30        HR                                              
   31         31        HR                                              
   32         32        HR                                              
   33         33        HR                                              
   34         34        HR                                              
   35         35        HR                                              
   36         36        HR                                              
   37         37        HR                                              
   38         38        HR                                              
   39         39        HR                                              
   40         40        HR                                              
   41         41        HR                                              
   42         42        HR                                              
   43         43        HR                                              
   44         44        HR                                              
   45         45        HR                                              
   46         46        HR                                              
   47         47        HR                                              
   48         48        HR                                              
   49         49        HR                                              
   50         50        HR                                              
   51         51        HR                                              
   52         52        HR                                              
   53         53        HR                                              
   54         54        HR                                              
   55         55        HR                                              
   56         56        HR                                              
   57         57        HR                                              
   58         58        HR                                              
   59         59        HR                                              
   60         60        HR                                              
   61         61        HR                                              
   62         62        HR                                              
   63         63        HR                                              
   64         64        HR                                              
   65         65        HR                                              
   66         66        HR                                              
   67         67        HR                                              
   68         68        HR                                              
   69         69        HR                                              
   70         70        HR                                              
   71         71        HR                                              
   72         72        HR                                              
   73         73        HR                                              
   74         74        HR                                              
   75         75        HR                                              
   76         76        HR                                              
   77         77        HR                                              
   78         78        HR                                              
   79         79        HR                                              
   80         80        HR                                              
   81         81        HR                                              
   82         82        HR                                              
   83         83        HR                                              
   84         84        HR                                              
   85         85        HR                                              
   86         86        HR                                              
   87         87        HR                                              
   88         88        HR                                              
   89         89        HR                                              
   90         90        HR                                              
   91         91        HR                                              
   92         92        HR                                              
   93         93        HR                                              
   94         94        HR                                              
   95         95        HR                                              
   96         96        HR                                              
   97         97        HR                                              
   98         98        HR                                              
   99         99        HR                                              
   100        100       HR                                              
   101        101       HR                                              
   102        102       HR                                              
   103        103       HR                                              
   104        104       HR                                              
   105        105       HR                                              
   106        106       HR                                              
   107        107       HR                                              
   108        108       HR                                              
   109        109       HR                                              
   110        110       HR                                              
   111        111       HR                                              
   112        112       HR                                              
   113        113       HR                                              
   114        114       HR                                              
   115        115       HR                                              
   116        116       HR                                              
   117        117       HR                                              
   118        118       HR                                              
   119        119       HR                                              
   120        120       HR                                              
   121        121       HR                                              
   122        122       HR                                              
   123        123       HR                                              
   124        124       HR                                              
   125        125       HR                                              
   126        126       HR                                              
   127        127       HR                                              
   128        128       HR                                              
   129        129       HR                                              
   130        130       HR                                              
   131        131       HR                                              
   132        132       HR                                              
   133        133       HR                                              
   134        134       HR                                              
   135        135       HR                                              
   136        136       HR                                              
   137        137       HR                                              
   138        138       HR                                              
   139        139       HR                                              
   140        140       HR                                              
   141        141       HR                                              
   142        142       HR                                              
   143        143       HR                                              
   144        144       HR                                              
   145        145       HR                                              
   146        146       HR                                              
   147        147       HR                                              
   148        148       HR                                              
   149        149       HR                                              
   150        150       HR                                              
   151        151       HR                                              
   152        152       HR                                              
   153        153       HR                                              
   154        154       HR                                              
   155        155       HR                                              
   156        156       HR                                              
   157        157       HR                                              
   158        158       HR                                              
   159        159       HR                                              
   160        160       HR                                              
   161        161       HR                                              
   162        162       HR                                              
   163        163       HR                                              
   164        164       HR                                              
   165        165       HR                                              
   166        166       HR                                              
   167        167       HR                                              
   168        168       HR                                              
   169        169       HR                                              
   170        170       HR                                              
   171        171       HR                                              
   172        172       HR                                              
   173        173       HR                                              
   174        174       HR                                              
   175        175       HR                                              
   176        176       HR                                              
   177        177       HR                                              
   178        178       HR                                              
   179        179       HR                                              
   180        180       HR                                              
   181        181       HR                                              
   182        182       HR                                              
   183        183       HR                                              
   184        184       HR                                              
   185        185       HR                                              
   186        186       HR                                              
   187        187       HR                                              
   188        188       HR                                              
   189        189       HR                                              
   190        190       HR                                              
   191        191       HR                                              
   192        192       HR                                              
   193        193       HR                                              
   194        194       HR                                              
   195        195       HR                                              
   196        196       HR                                              
   197        197       HR                                              
   198        198       HR                                              
   199        199       HR                                              
   200        200       HR                                              
   201        201       HR                                              
   202        202       HR                                              
   203        203       HR                                              
   204        204       HR                                              
   205        205       HR                                              
   206        206       HR                                              
   207        207       HR                                              
   208        208       HR                                              
   209        209       HR                                              
   210        210       HR                                              
   211        211       HR                                              
   212        212       HR                                              
   213        213       HR                                              
   214        214       HR                                              
   215        215       HR                                              
   216        216       HR                                              
   217        217       HR                                              
   218        218       HR                                              
   219        219       HR                                              
   220        220       HR                                              
   221        221       HR                                              
   222        222       HR                                              
   223        223       HR                                              
   224        224       HR                                              
   225        225       HR                                              
   226        226       HR                                              
   227        227       HR                                              
   228        228       HR                                              
   229        229       HR                                              
   230        230       HR                                              
   231        231       HR                                              
   232        232       HR                                              
   233        233       HR                                              
   234        234       HR                                              
   235        235       HR                                              
   236        236       HR                                              
   237        237       HR                                              
   238        238       HR                                              
   239        239       HR                                              
   240        240       HR                                              
   241        241       HR                                              
   242        242       HR                                              
   243        243       HR                                              
   244        244       HR                                              
   245        245       HR                                              
   246        246       HR                                              
   247        247       HR                                              
   248        248       HR                                              
   249        249       HR                                              
   250        250       HR                                              
   251        251       HR                                              
   252        252       HR                                              
   253        253       HR                                              
   254        254       HR                                              
   255        255       HR                                              
   256        256       HR                                              

LOCAL TO GLOBAL NODE AND ELEMENT MAPS
                                                  Local      Global     
                                                  node       node       
                                                  number     number
  Instance name
  HR                                               1          1         
  HR                                               2          2         
  HR                                               3          3         
  HR                                               4          4         
  HR                                               5          5         
  HR                                               6          6         
  HR                                               7          7         
  HR                                               8          8         
  HR                                               9          9         
  HR                                               10         10        
  HR                                               11         11        
  HR                                               12         12        
  HR                                               13         13        
  HR                                               14         14        
  HR                                               15         15        
  HR                                               16         16        
  HR                                               17         17        
  HR                                               18         18        
  HR                                               19         19        
  HR                                               20         20        
  HR                                               21         21        
  HR                                               22         22        
  HR                                               23         23        
  HR                                               24         24        
  HR                                               25         25        
  HR                                               26         26        
  HR                                               27         27        
  HR                                               28         28        
  HR                                               29         29        
  HR                                               30         30        
  HR                                               31         31        
  HR                                               32         32        
  HR                                               33         33        
  HR                                               34         34        
  HR                                               35         35        
  HR                                               36         36        
  HR                                               37         37        
  HR                                               38         38        
  HR                                               39         39        
  HR                                               40         40        
  HR                                               41         41        
  HR                                               42         42        
  HR                                               43         43        
  HR                                               44         44        
  HR                                               45         45        
  HR                                               46         46        
  HR                                               47         47        
  HR                                               48         48        
  HR                                               49         49        
  HR                                               50         50        
  HR                                               51         51        
  HR                                               52         52        
  HR                                               53         53        
  HR                                               54         54        
  HR                                               55         55        
  HR                                               56         56        
  HR                                               57         57        
  HR                                               58         58        
  HR                                               59         59        
  HR                                               60         60        
  HR                                               61         61        
  HR                                               62         62        
  HR                                               63         63        
  HR                                               64         64        
  HR                                               65         65        
  HR                                               66         66        
  HR                                               67         67        
  HR                                               68         68        
  HR                                               69         69        
  HR                                               70         70        
  HR                                               71         71        
  HR                                               72         72        
  HR                                               73         73        
  HR                                               74         74        
  HR                                               75         75        
  HR                                               76         76        
  HR                                               77         77        
  HR                                               78         78        
  HR                                               79         79        
  HR                                               80         80        
  HR                                               81         81        
  HR                                               82         82        
  HR                                               83         83        
  HR                                               84         84        
  HR                                               85         85        
  HR                                               86         86        
  HR                                               87         87        
  HR                                               88         88        
  HR                                               89         89        
  HR                                               90         90        
  HR                                               91         91        
  HR                                               92         92        
  HR                                               93         93        
  HR                                               94         94        
  HR                                               95         95        
  HR                                               96         96        
  HR                                               97         97        
  HR                                               98         98        
  HR                                               99         99        
  HR                                               100        100       
  HR                                               101        101       
  HR                                               102        102       
  HR                                               103        103       
  HR                                               104        104       
  HR                                               105        105       
  HR                                               106        106       
  HR                                               107        107       
  HR                                               108        108       
  HR                                               109        109       
  HR                                               110        110       
  HR                                               111        111       
  HR                                               112        112       
  HR                                               113        113       
  HR                                               114        114       
  HR                                               115        115       
  HR                                               116        116       
  HR                                               117        117       
  HR                                               118        118       
  HR                                               119        119       
  HR                                               120        120       
  HR                                               121        121       
  HR                                               122        122       
  HR                                               123        123       
  HR                                               124        124       
  HR                                               125        125       
  HR                                               126        126       
  HR                                               127        127       
  HR                                               128        128       
  HR                                               129        129       
  HR                                               130        130       
  HR                                               131        131       
  HR                                               132        132       
  HR                                               133        133       
  HR                                               134        134       
  HR                                               135        135       
  HR                                               136        136       
  HR                                               137        137       
  HR                                               138        138       
  HR                                               139        139       
  HR                                               140        140       
  HR                                               141        141       
  HR                                               142        142       
  HR                                               143        143       
  HR                                               144        144       
  HR                                               145        145       
  HR                                               146        146       
  HR                                               147        147       
  HR                                               148        148       
  HR                                               149        149       
  HR                                               150        150       
  HR                                               151        151       
  HR                                               152        152       
  HR                                               153        153       
  HR                                               154        154       
  HR                                               155        155       
  HR                                               156        156       
  HR                                               157        157       
  HR                                               158        158       
  HR                                               159        159       
  HR                                               160        160       
  HR                                               161        161       
  HR                                               162        162       
  HR                                               163        163       
  HR                                               164        164       
  HR                                               165        165       
  HR                                               166        166       
  HR                                               167        167       
  HR                                               168        168       
  HR                                               169        169       
  HR                                               170        170       
  HR                                               171        171       
  HR                                               172        172       
  HR                                               173        173       
  HR                                               174        174       
  HR                                               175        175       
  HR                                               176        176       
  HR                                               177        177       
  HR                                               178        178       
  HR                                               179        179       
  HR                                               180        180       
  HR                                               181        181       
  HR                                               182        182       
  HR                                               183        183       
  HR                                               184        184       
  HR                                               185        185       
  HR                                               186        186       
  HR                                               187        187       
  HR                                               188        188       
  HR                                               189        189       
  HR                                               190        190       
  HR                                               191        191       
  HR                                               192        192       
  HR                                               193        193       
  HR                                               194        194       
  HR                                               195        195       
  HR                                               196        196       
  HR                                               197        197       
  HR                                               198        198       
  HR                                               199        199       
  HR                                               200        200       
  HR                                               201        201       
  HR                                               202        202       
  HR                                               203        203       
  HR                                               204        204       
  HR                                               205        205       
  HR                                               206        206       
  HR                                               207        207       
  HR                                               208        208       
  HR                                               209        209       
  HR                                               210        210       
  HR                                               211        211       
  HR                                               212        212       
  HR                                               213        213       
  HR                                               214        214       
  HR                                               215        215       
  HR                                               216        216       
  HR                                               217        217       
  HR                                               218        218       
  HR                                               219        219       
  HR                                               220        220       
  HR                                               221        221       
  HR                                               222        222       
  HR                                               223        223       
  HR                                               224        224       
  HR                                               225        225       
  HR                                               226        226       
  HR                                               227        227       
  HR                                               228        228       
  HR                                               229        229       
  HR                                               230        230       
  HR                                               231        231       
  HR                                               232        232       
  HR                                               233        233       
  HR                                               234        234       
  HR                                               235        235       
  HR                                               236        236       
  HR                                               237        237       
  HR                                               238        238       
  HR                                               239        239       
  HR                                               240        240       
  HR                                               241        241       
  HR                                               242        242       
  HR                                               243        243       
  HR                                               244        244       
  HR                                               245        245       
  HR                                               246        246       
  HR                                               247        247       
  HR                                               248        248       
  HR                                               249        249       
  HR                                               250        250       
  HR                                               251        251       
  HR                                               252        252       
  HR                                               253        253       
  HR                                               254        254       
  HR                                               255        255       
  HR                                               256        256       
  HR                                               257        257       
  HR                                               258        258       
  HR                                               259        259       
  HR                                               260        260       
  HR                                               261        261       
  HR                                               262        262       
  HR                                               263        263       
  HR                                               264        264       
  HR                                               265        265       
  HR                                               266        266       
  HR                                               267        267       
  HR                                               268        268       
  HR                                               269        269       
  HR                                               270        270       
  HR                                               271        271       
  HR                                               272        272       
  HR                                               273        273       
  HR                                               274        274       
  HR                                               275        275       
  HR                                               276        276       
  HR                                               277        277       
  HR                                               278        278       
  HR                                               279        279       
  HR                                               280        280       
  HR                                               281        281       
  HR                                               282        282       
  HR                                               283        283       
  HR                                               284        284       
  HR                                               285        285       
  HR                                               286        286       
  HR                                               287        287       
  HR                                               288        288       
  HR                                               289        289       

                                                  Local      Global     
                                                  element    element    
                                                  number     number
  Instance name
  HR                                               1          1         
  HR                                               2          2         
  HR                                               3          3         
  HR                                               4          4         
  HR                                               5          5         
  HR                                               6          6         
  HR                                               7          7         
  HR                                               8          8         
  HR                                               9          9         
  HR                                               10         10        
  HR                                               11         11        
  HR                                               12         12        
  HR                                               13         13        
  HR                                               14         14        
  HR                                               15         15        
  HR                                               16         16        
  HR                                               17         17        
  HR                                               18         18        
  HR                                               19         19        
  HR                                               20         20        
  HR                                               21         21        
  HR                                               22         22        
  HR                                               23         23        
  HR                                               24         24        
  HR                                               25         25        
  HR                                               26         26        
  HR                                               27         27        
  HR                                               28         28        
  HR                                               29         29        
  HR                                               30         30        
  HR                                               31         31        
  HR                                               32         32        
  HR                                               33         33        
  HR                                               34         34        
  HR                                               35         35        
  HR                                               36         36        
  HR                                               37         37        
  HR                                               38         38        
  HR                                               39         39        
  HR                                               40         40        
  HR                                               41         41        
  HR                                               42         42        
  HR                                               43         43        
  HR                                               44         44        
  HR                                               45         45        
  HR                                               46         46        
  HR                                               47         47        
  HR                                               48         48        
  HR                                               49         49        
  HR                                               50         50        
  HR                                               51         51        
  HR                                               52         52        
  HR                                               53         53        
  HR                                               54         54        
  HR                                               55         55        
  HR                                               56         56        
  HR                                               57         57        
  HR                                               58         58        
  HR                                               59         59        
  HR                                               60         60        
  HR                                               61         61        
  HR                                               62         62        
  HR                                               63         63        
  HR                                               64         64        
  HR                                               65         65        
  HR                                               66         66        
  HR                                               67         67        
  HR                                               68         68        
  HR                                               69         69        
  HR                                               70         70        
  HR                                               71         71        
  HR                                               72         72        
  HR                                               73         73        
  HR                                               74         74        
  HR                                               75         75        
  HR                                               76         76        
  HR                                               77         77        
  HR                                               78         78        
  HR                                               79         79        
  HR                                               80         80        
  HR                                               81         81        
  HR                                               82         82        
  HR                                               83         83        
  HR                                               84         84        
  HR                                               85         85        
  HR                                               86         86        
  HR                                               87         87        
  HR                                               88         88        
  HR                                               89         89        
  HR                                               90         90        
  HR                                               91         91        
  HR                                               92         92        
  HR                                               93         93        
  HR                                               94         94        
  HR                                               95         95        
  HR                                               96         96        
[...]
            NOTE
  
        289      -1192.      -884.6      -713.3       6486.      -10.60      -6644.     

 MAXIMUM         -1192.      -884.6      -713.3       6486.      -10.60      -6644.    
 AT NODE               289         289         289         289         289         289

 MINIMUM         -1192.      -884.6      -713.3       6486.      -10.60      -6644.    
 AT NODE               289         289         289         289         289         289


                                INCREMENT  1000 SUMMARY


 TIME INCREMENT COMPLETED  1.000E-03,  FRACTION OF STEP COMPLETED  0.990    
 STEP TIME COMPLETED       0.990    ,  TOTAL TIME COMPLETED        0.990    
  
  
  
  
                                       N O D E   O U T P U T
  
  
  
  
   THE FOLLOWING TABLE IS PRINTED FOR NODES BELONGING TO NODE SET ASSEMBLY__PICKEDSET6
  
       NODE FOOT-   U1          U2          U3          UR1         UR2         UR3      
            NOTE
  
        289       0.000      -39.58       0.000       0.000       0.000       0.000     

 MAXIMUM          0.000      -39.58       0.000       0.000       0.000       0.000    
 AT NODE               289         289         289         289         289         289

 MINIMUM          0.000      -39.58       0.000       0.000       0.000       0.000    
 AT NODE               289         289         289         289         289         289
  
  
  
   THE FOLLOWING TABLE IS PRINTED FOR NODES BELONGING TO NODE SET ASSEMBLY__PICKEDSET6
  
       NODE FOOT-   RF1         RF2         RF3         RM1         RM2         RM3      
            NOTE
  
        289      -1197.      -888.8      -717.0       6510.      -10.66      -6666.     

 MAXIMUM         -1197.      -888.8      -717.0       6510.      -10.66      -6666.    
 AT NODE               289         289         289         289         289         289

 MINIMUM         -1197.      -888.8      -717.0       6510.      -10.66      -6666.    
 AT NODE               289         289         289         289         289         289


                                INCREMENT  1001 SUMMARY


 TIME INCREMENT COMPLETED  1.000E-03,  FRACTION OF STEP COMPLETED  0.991    
 STEP TIME COMPLETED       0.991    ,  TOTAL TIME COMPLETED        0.991    
  
  
  
  
                                       N O D E   O U T P U T
  
  
  
  
   THE FOLLOWING TABLE IS PRINTED FOR NODES BELONGING TO NODE SET ASSEMBLY__PICKEDSET6
  
       NODE FOOT-   U1          U2          U3          UR1         UR2         UR3      
            NOTE
  
        289       0.000      -39.62       0.000       0.000       0.000       0.000     

 MAXIMUM          0.000      -39.62       0.000       0.000       0.000       0.000    
 AT NODE               289         289         289         289         289         289

 MINIMUM          0.000      -39.62       0.000       0.000       0.000       0.000    
 AT NODE               289         289         289         289         289         289
  
  
  
   THE FOLLOWING TABLE IS PRINTED FOR NODES BELONGING TO NODE SET ASSEMBLY__PICKEDSET6
  
       NODE FOOT-   RF1         RF2         RF3         RM1         RM2         RM3      
            NOTE
  
        289      -1203.      -893.0      -720.7       6534.      -10.73      -6689.     

 MAXIMUM         -1203.      -893.0      -720.7       6534.      -10.73      -6689.    
 AT NODE               289         289         289         289         289         289

 MINIMUM         -1203.      -893.0      -720.7       6534.      -10.73      -6689.    
 AT NODE               289         289         289         289         289         289


                                INCREMENT  1002 SUMMARY


 TIME INCREMENT COMPLETED  1.000E-03,  FRACTION OF STEP COMPLETED  0.992    
 STEP TIME COMPLETED       0.992    ,  TOTAL TIME COMPLETED        0.992    
  
  
  
  
                                       N O D E   O U T P U T
  
  
  
  
   THE FOLLOWING TABLE IS PRINTED FOR NODES BELONGING TO NODE SET ASSEMBLY__PICKEDSET6
  
       NODE FOOT-   U1          U2          U3          UR1         UR2         UR3      
            NOTE
  
        289       0.000      -39.66       0.000       0.000       0.000       0.000     

 MAXIMUM          0.000      -39.66       0.000       0.000       0.000       0.000    
 AT NODE               289         289         289         289         289         289

 MINIMUM          0.000      -39.66       0.000       0.000       0.000       0.000    
 AT NODE               289         289         289         289         289         289
  
  
  
   THE FOLLOWING TABLE IS PRINTED FOR NODES BELONGING TO NODE SET ASSEMBLY__PICKEDSET6
  
       NODE FOOT-   RF1         RF2         RF3         RM1         RM2         RM3      
            NOTE
  
        289      -1208.      -897.2      -724.4       6558.      -10.79      -6711.     

 MAXIMUM         -1208.      -897.2      -724.4       6558.      -10.79      -6711.    
 AT NODE               289         289         289         289         289         289

 MINIMUM         -1208.      -897.2      -724.4       6558.      -10.79      -6711.    
 AT NODE               289         289         289         289         289         289


                                INCREMENT  1003 SUMMARY


 TIME INCREMENT COMPLETED  1.000E-03,  FRACTION OF STEP COMPLETED  0.993    
 STEP TIME COMPLETED       0.993    ,  TOTAL TIME COMPLETED        0.993    
  
  
  
  
                                       N O D E   O U T P U T
  
  
  
  
   THE FOLLOWING TABLE IS PRINTED FOR NODES BELONGING TO NODE SET ASSEMBLY__PICKEDSET6
  
       NODE FOOT-   U1          U2          U3          UR1         UR2         UR3      
            NOTE
  
        289       0.000      -39.70       0.000       0.000       0.000       0.000     

 MAXIMUM          0.000      -39.70       0.000       0.000       0.000       0.000    
 AT NODE               289         289         289         289         289         289

 MINIMUM          0.000      -39.70       0.000       0.000       0.000       0.000    
 AT NODE               289         289         289         289         289         289
  
  
  
   THE FOLLOWING TABLE IS PRINTED FOR NODES BELONGING TO NODE SET ASSEMBLY__PICKEDSET6
  
       NODE FOOT-   RF1         RF2         RF3         RM1         RM2         RM3      
            NOTE
  
        289      -1213.      -901.4      -728.1       6582.      -10.85      -6734.     

 MAXIMUM         -1213.      -901.4      -728.1       6582.      -10.85      -6734.    
 AT NODE               289         289         289         289         289         289

 MINIMUM         -1213.      -901.4      -728.1       6582.      -10.85      -6734.    
 AT NODE               289         289         289         289         289         289


                                INCREMENT  1004 SUMMARY


 TIME INCREMENT COMPLETED  1.000E-03,  FRACTION OF STEP COMPLETED  0.994    
 STEP TIME COMPLETED       0.994    ,  TOTAL TIME COMPLETED        0.994    
  
  
  
  
                                       N O D E   O U T P U T
  
  
  
  
   THE FOLLOWING TABLE IS PRINTED FOR NODES BELONGING TO NODE SET ASSEMBLY__PICKEDSET6
  
       NODE FOOT-   U1          U2          U3          UR1         UR2         UR3      
            NOTE
  
        289       0.000      -39.74       0.000       0.000       0.000       0.000     

 MAXIMUM          0.000      -39.74       0.000       0.000       0.000       0.000    
 AT NODE               289         289         289         289         289         289

 MINIMUM          0.000      -39.74       0.000       0.000       0.000       0.000    
 AT NODE               289         289         289         289         289         289
  
  
  
   THE FOLLOWING TABLE IS PRINTED FOR NODES BELONGING TO NODE SET ASSEMBLY__PICKEDSET6
  
       NODE FOOT-   RF1         RF2         RF3         RM1         RM2         RM3      
            NOTE
  
        289      -1219.      -905.6      -731.8       6606.      -10.91      -6756.     

 MAXIMUM         -1219.      -905.6      -731.8       6606.      -10.91      -6756.    
 AT NODE               289         289         289         289         289         289

 MINIMUM         -1219.      -905.6      -731.8       6606.      -10.91      -6756.    
 AT NODE               289         289         289         289         289         289


                                INCREMENT  1005 SUMMARY


 TIME INCREMENT COMPLETED  1.000E-03,  FRACTION OF STEP COMPLETED  0.995    
 STEP TIME COMPLETED       0.995    ,  TOTAL TIME COMPLETED        0.995    
  
  
  
  
                                       N O D E   O U T P U T
  
  
  
  
   THE FOLLOWING TABLE IS PRINTED FOR NODES BELONGING TO NODE SET ASSEMBLY__PICKEDSET6
  
       NODE FOOT-   U1          U2          U3          UR1         UR2         UR3      
            NOTE
  
        289       0.000      -39.78       0.000       0.000       0.000       0.000     

 MAXIMUM          0.000      -39.78       0.000       0.000       0.000       0.000    
 AT NODE               289         289         289         289         289         289

 MINIMUM          0.000      -39.78       0.000       0.000       0.000       0.000    
 AT NODE               289         289         289         289         289         289
  
  
  
   THE FOLLOWING TABLE IS PRINTED FOR NODES BELONGING TO NODE SET ASSEMBLY__PICKEDSET6
  
       NODE FOOT-   RF1         RF2         RF3         RM1         RM2         RM3      
            NOTE
  
        289      -1224.      -909.8      -735.5       6630.      -10.98      -6779.     

 MAXIMUM         -1224.      -909.8      -735.5       6630.      -10.98      -6779.    
 AT NODE               289         289         289         289         289         289

 MINIMUM         -1224.      -909.8      -735.5       6630.      -10.98      -6779.    
 AT NODE               289         289         289         289         289         289


                                INCREMENT  1006 SUMMARY


 TIME INCREMENT COMPLETED  1.000E-03,  FRACTION OF STEP COMPLETED  0.996    
 STEP TIME COMPLETED       0.996    ,  TOTAL TIME COMPLETED        0.996    
  
  
  
  
                                       N O D E   O U T P U T
  
  
  
  
   THE FOLLOWING TABLE IS PRINTED FOR NODES BELONGING TO NODE SET ASSEMBLY__PICKEDSET6
  
       NODE FOOT-   U1          U2          U3          UR1         UR2         UR3      
            NOTE
  
        289       0.000      -39.82       0.000       0.000       0.000       0.000     

 MAXIMUM          0.000      -39.82       0.000       0.000       0.000       0.000    
 AT NODE               289         289         289         289         289         289

 MINIMUM          0.000      -39.82       0.000       0.000       0.000       0.000    
 AT NODE               289         289         289         289         289         289
  
  
  
   THE FOLLOWING TABLE IS PRINTED FOR NODES BELONGING TO NODE SET ASSEMBLY__PICKEDSET6
  
       NODE FOOT-   RF1         RF2         RF3         RM1         RM2         RM3      
            NOTE
  
        289      -1230.      -914.1      -739.3       6654.      -11.04      -6801.     

 MAXIMUM         -1230.      -914.1      -739.3       6654.      -11.04      -6801.    
 AT NODE               289         289         289         289         289         289

 MINIMUM         -1230.      -914.1      -739.3       6654.      -11.04      -6801.    
 AT NODE               289         289         289         289         289         289


                                INCREMENT  1007 SUMMARY


 TIME INCREMENT COMPLETED  1.000E-03,  FRACTION OF STEP COMPLETED  0.997    
 STEP TIME COMPLETED       0.997    ,  TOTAL TIME COMPLETED        0.997    
  
  
  
  
                                       N O D E   O U T P U T
  
  
  
  
   THE FOLLOWING TABLE IS PRINTED FOR NODES BELONGING TO NODE SET ASSEMBLY__PICKEDSET6
  
       NODE FOOT-   U1          U2          U3          UR1         UR2         UR3      
            NOTE
  
        289       0.000      -39.86       0.000       0.000       0.000       0.000     

 MAXIMUM          0.000      -39.86       0.000       0.000       0.000       0.000    
 AT NODE               289         289         289         289         289         289

 MINIMUM          0.000      -39.86       0.000       0.000       0.000       0.000    
 AT NODE               289         289         289         289         289         289
  
  
  
   THE FOLLOWING TABLE IS PRINTED FOR NODES BELONGING TO NODE SET ASSEMBLY__PICKEDSET6
  
       NODE FOOT-   RF1         RF2         RF3         RM1         RM2         RM3      
            NOTE
  
        289      -1235.      -918.3      -743.0       6678.      -11.10      -6824.     

 MAXIMUM         -1235.      -918.3      -743.0       6678.      -11.10      -6824.    
 AT NODE               289         289         289         289         289         289

 MINIMUM         -1235.      -918.3      -743.0       6678.      -11.10      -6824.    
 AT NODE               289         289         289         289         289         289


                                INCREMENT  1008 SUMMARY


 TIME INCREMENT COMPLETED  1.000E-03,  FRACTION OF STEP COMPLETED  0.998    
 STEP TIME COMPLETED       0.998    ,  TOTAL TIME COMPLETED        0.998    
  
  
  
  
                                       N O D E   O U T P U T
  
  
  
  
   THE FOLLOWING TABLE IS PRINTED FOR NODES BELONGING TO NODE SET ASSEMBLY__PICKEDSET6
  
       NODE FOOT-   U1          U2          U3          UR1         UR2         UR3      
            NOTE
  
        289       0.000      -39.90       0.000       0.000       0.000       0.000     

 MAXIMUM          0.000      -39.90       0.000       0.000       0.000       0.000    
 AT NODE               289         289         289         289         289         289

 MINIMUM          0.000      -39.90       0.000       0.000       0.000       0.000    
 AT NODE               289         289         289         289         289         289
  
  
  
   THE FOLLOWING TABLE IS PRINTED FOR NODES BELONGING TO NODE SET ASSEMBLY__PICKEDSET6
  
       NODE FOOT-   RF1         RF2         RF3         RM1         RM2         RM3      
            NOTE
  
        289      -1241.      -922.6      -746.8       6702.      -11.17      -6847.     

 MAXIMUM         -1241.      -922.6      -746.8       6702.      -11.17      -6847.    
 AT NODE               289         289         289         289         289         289

 MINIMUM         -1241.      -922.6      -746.8       6702.      -11.17      -6847.    
 AT NODE               289         289         289         289         289         289


                                INCREMENT  1009 SUMMARY


 TIME INCREMENT COMPLETED  1.000E-03,  FRACTION OF STEP COMPLETED  0.999    
 STEP TIME COMPLETED       0.999    ,  TOTAL TIME COMPLETED        0.999    
  
  
  
  
                                       N O D E   O U T P U T
  
  
  
  
   THE FOLLOWING TABLE IS PRINTED FOR NODES BELONGING TO NODE SET ASSEMBLY__PICKEDSET6
  
       NODE FOOT-   U1          U2          U3          UR1         UR2         UR3      
            NOTE
  
        289       0.000      -39.94       0.000       0.000       0.000       0.000     

 MAXIMUM          0.000      -39.94       0.000       0.000       0.000       0.000    
 AT NODE               289         289         289         289         289         289

 MINIMUM          0.000      -39.94       0.000       0.000       0.000       0.000    
 AT NODE               289         289         289         289         289         289
  
  
  
   THE FOLLOWING TABLE IS PRINTED FOR NODES BELONGING TO NODE SET ASSEMBLY__PICKEDSET6
  
       NODE FOOT-   RF1         RF2         RF3         RM1         RM2         RM3      
            NOTE
  
        289      -1246.      -926.9      -750.5       6726.      -11.23      -6870.     

 MAXIMUM         -1246.      -926.9      -750.5       6726.      -11.23      -6870.    
 AT NODE               289         289         289         289         289         289

 MINIMUM         -1246.      -926.9      -750.5       6726.      -11.23      -6870.    
 AT NODE               289         289         289         289         289         289


                                INCREMENT  1010 SUMMARY


 TIME INCREMENT COMPLETED  1.000E-03,  FRACTION OF STEP COMPLETED   1.00    
 STEP TIME COMPLETED        1.00    ,  TOTAL TIME COMPLETED         1.00    
  
  
  
  
                                       N O D E   O U T P U T
  
  
  
  
   THE FOLLOWING TABLE IS PRINTED FOR NODES BELONGING TO NODE SET ASSEMBLY__PICKEDSET6
  
       NODE FOOT-   U1          U2          U3          UR1         UR2         UR3      
            NOTE
  
        289       0.000      -39.98       0.000       0.000       0.000       0.000     

 MAXIMUM          0.000      -39.98       0.000       0.000       0.000       0.000    
 AT NODE               289         289         289         289         289         289

 MINIMUM          0.000      -39.98       0.000       0.000       0.000       0.000    
 AT NODE               289         289         289         289         289         289
  
  
  
   THE FOLLOWING TABLE IS PRINTED FOR NODES BELONGING TO NODE SET ASSEMBLY__PICKEDSET6
  
       NODE FOOT-   RF1         RF2         RF3         RM1         RM2         RM3      
            NOTE
  
        289      -1251.      -931.1      -754.3       6751.      -11.29      -6892.     

 MAXIMUM         -1251.      -931.1      -754.3       6751.      -11.29      -6892.    
 AT NODE               289         289         289         289         289         289

 MINIMUM         -1251.      -931.1      -754.3       6751.      -11.29      -6892.    
 AT NODE               289         289         289         289         289         289


                                INCREMENT  1011 SUMMARY


 TIME INCREMENT COMPLETED  3.995E-04,  FRACTION OF STEP COMPLETED   1.00    
 STEP TIME COMPLETED        1.00    ,  TOTAL TIME COMPLETED         1.00    
  
  
  
  
                                       N O D E   O U T P U T
  
  
  
  
   THE FOLLOWING TABLE IS PRINTED FOR NODES BELONGING TO NODE SET ASSEMBLY__PICKEDSET6
  
       NODE FOOT-   U1          U2          U3          UR1         UR2         UR3      
            NOTE
  
        289       0.000      -40.00       0.000       0.000       0.000       0.000     

 MAXIMUM          0.000      -40.00       0.000       0.000       0.000       0.000    
 AT NODE               289         289         289         289         289         289

 MINIMUM          0.000      -40.00       0.000       0.000       0.000       0.000    
 AT NODE               289         289         289         289         289         289
  
  
  
   THE FOLLOWING TABLE IS PRINTED FOR NODES BELONGING TO NODE SET ASSEMBLY__PICKEDSET6
  
       NODE FOOT-   RF1         RF2         RF3         RM1         RM2         RM3      
            NOTE
  
        289      -1254.      -932.9      -755.8       6760.      -11.32      -6901.     

 MAXIMUM         -1254.      -932.9      -755.8       6760.      -11.32      -6901.    
 AT NODE               289         289         289         289         289         289

 MINIMUM         -1254.      -932.9      -755.8       6760.      -11.32      -6901.    
 AT NODE               289         289         289         289         289         289


          THE ANALYSIS HAS BEEN COMPLETED



                              ANALYSIS COMPLETE
                              WITH      6 WARNING MESSAGES ON THE MSG FILE
                                        6 WARNINGS ARE FOR NEGATIVE EIGENVALUES



     JOB TIME SUMMARY
       USER TIME (SEC)      =   77.960    
       SYSTEM TIME (SEC)    =   7.8500    
       TOTAL CPU TIME (SEC) =   85.810    
       WALLCLOCK TIME (SEC) =         92
